FoamFile
{
    version         1.4;
    format          ascii;

    root            "";
    case            "";
    instance        "constant";
    local           "";

    class           dictionary;
    object          gmtDict;
}

// How to plot
// Compulsory inputs
projection "X18c/10c";
projection2D XZ;
patch front;

FieldsToPlot
1
(
    [divPhi      rawValues -3e-9 3e-9 5e-10 "$GMTU/colours/red_white_blue.cpt"]
);

//region "-3000000/-2800000/0/10000";

