FoamFile
{
    version         1.4;
    format          ascii;

    root            "";
    case            "";
    instance        "constant";
    local           "";

    class           dictionary;
    object          gmtDict;
}

// How to plot
// Compulsory inputs
projection "X18c/18c";
projection2D XZ;

FieldsToPlot
1
(
    [dVdt  rawValues 0 0 0 "$GMTU/colours/red_white_blue.cpt"]
);

//region "0/5e3/0/5e3";

