FoamFile
{
    version         1.4;
    format          ascii;

    root            "";
    case            "";
    instance        "constant";
    local           "";

    class           dictionary;
    object          gmtDict;
}

// How to plot
// Compulsory inputs
projection "X18c/18c";
projection2D XZ;
//patch front;

FieldsToPlot
2
(
    [ExnerDiff filledContours 0 0 0 "$GMTU/colours/red_white_blue.cpt"]
//    [ExnerDiff rawValues -1e-9 1e-9 1e-10 "$GMTU/colours/red_white_blue.cpt"]
    [Uf         vectors  0 1 "black"]
);

annotate "minMax 0.01 -0.005";
//region "0/3e3/0/3e3";

