FoamFile
{
    version         1.4;
    format          ascii;

    root            "";
    case            "";
    instance        "constant";
    local           "";

    class           dictionary;
    object          gmtDict;
}

// How to plot
// Compulsory inputs
projection "X18c/10c";
projection2D XZ;
patch front;

FieldsToPlot
2
(
    [rhoDiff rawValues 0 0 0 "$GMTU/colours/red_white_blue.cpt"]
//    [rhoDiff rawValues -1e-6 1e-6 1e-7 "$GMTU/colours/red_white_blue.cpt"]
    [UfDiff         vectors  2e7 17 "black"]
);
