FoamFile
{
    version         1.4;
    format          ascii;

    root            "";
    case            "";
    instance        "constant";
    local           "";

    class           dictionary;
    object          gmtDict;
}

// How to plot
// Compulsory inputs
projection "X18c/18c";
projection2D XZ;
//patch front;

FieldsToPlot
1
(
    [snGradExner rawValues -1e-12 1e-12 1e-13 "$GMTU/colours/red_white_blue.cpt"]
//    [snGradExner rawValues -1e-6 1e-6 1e-7 "$GMTU/colours/red_white_blue.cpt"]
);

annotate "minMax 0.01 -0.005";
