FoamFile
{
    version         1.4;
    format          ascii;

    root            "";
    case            "";
    instance        "constant";
    local           "";

    class           dictionary;
    object          gmtDict;
}

// How to plot
// Compulsory inputs
projection "X12c/12c";
projection2D XZ;
//patch front;
boundaryPatch ground;

FieldsToPlot
3
(
    [theta filledContours 290 330 1 "wysiwyg"]
    [none mesh "grey"]
    [Uf    vectors  0 1 "3p,black"]
    //[theta contours 290 570 1 "black"]
);

//annotate "minMax 0.01 -0.005";
region "0/10e3/0/10e3";
separateLegend yes;
