FoamFile
{
    version         1.4;
    format          ascii;

    root            "";
    case            "";
    instance        "constant";
    local           "";

    class           dictionary;
    object          gmtDict;
}

// How to plot
// Compulsory inputs
projection "X18c/8c";
projection2D XZ;
//patch frontAndBack;

FieldsToPlot

(
    [T filledContours -1 1 0.05 "$GMTU/colours/red_white_blue.cpt"]
    [Texact contours 0.1 1 0.1 "black"]
);

region "-80e3/80e3/0/14000";
annotate "minMax 0.01 -0.1";

