FoamFile
{
    version         1.4;
    format          ascii;

    root            "";
    case            "";
    instance        "constant";
    local           "";

    class           dictionary;
    object          gmtDict;
}

// How to plot
// Compulsory inputs
projection "X10c/7.5c";
projection2D XZ;
//patch frontAndBack;

FieldsToPlot
3
(
    [stencilWeights rawValues -1 1 0.1 "$GMTU/colours/red_white_blue.cpt"]
//    [none mesh "black"]
    [psif rawValues 0 1 1 "$GMTU/colours/white_black.cpt"]
    [departurePoints vectorEndPoints 1 1 "black"]
);

region "-15e3/5e3/0/15e3";
//annotate "minMax 0.01 -0.01";
separateLegend true;
