FoamFile
{
    version         2.2;
    format          ascii;

    root            "";
    case            "";
    instance        "constant";
    local           "";

    class           dictionary;
    object          gmtDict;
}

// How to plot
// Compulsory inputs
projection "X18c/18c";
projection2D XZ;

FieldsToPlot
(
//    [equidistVol rawValues 0.3 2.3 0.1 "$GMTU/colours/red_white_blue.cpt"]
    [equidistVol rawValues 0 0 0 "$GMTU/colours/red_white_blue.cpt"]
    [none mesh "black"]
);

annotate "minMax -0.5 -0.5025";

