FoamFile
{
    version         2.2;
    format          ascii;

    root            "";
    case            "";
    instance        "constant";
    local           "";

    class           dictionary;
    object          gmtDict;
}

// How to plot
// Compulsory inputs
projection "X18c/18c";
projection2D XZ;

FieldsToPlot
3
(
    [monitorR rawValues 0 10 0.5 "$GMTU/colours/white_blue_red.cpt"]
    [monitor  rawValues 0 10 0.5 "$GMTU/colours/white_blue_red.cpt"]
    [none mesh "grey"]
);

lastPlot false;
