FoamFile
{
    version         2.2;
    format          ascii;

    root            "";
    case            "";
    instance        "constant";
    local           "";

    class           dictionary;
    object          gmtDict;
}

// How to plot
// Compulsory inputs
projection "X18c/18c";
projection2D XZ;

FieldsToPlot
(
    [orthogonality rawValues 0 90 5 "$GMTU/colours/white_blue_red.cpt"]
);

annotate "minMax -0.5 -0.5025";

