// The FOAM Project // File: fvSchemes
/*
-------------------------------------------------------------------------------
 =========         | dictionary
 \\      /         |
  \\    /          | Name:   fvSchemes
   \\  /           | Family: FoamX configuration file
    \\/            |
    F ield         | FOAM version: 2.3
    O peration     | Product of Nabla Ltd.
    A and          |
    M anipulation  | Email: Enquiries@Nabla.co.uk
-------------------------------------------------------------------------------
*/
// FoamX Case Dictionary.

FoamFile
{
    version         2.0;
    format          ascii;

    root            "";
    case            "";
    instance        "system";
    local           "";

    class           dictionary;
    object          MongeAmpereSphereDict;
}

// * * * * * * * * * * * * * * * * * * * * * * * * * * * * * * * * * * * * * //

monitorFunctionFrom monitorFunctionTanh;
alpha 0.157079633; // pi/20
//alpha 0.4;
beta 0.523598776;  // pi/6
//beta 0.;
gamma 0.00390625;
//centre (cos(30)*sin(90) cos(30)*cos(90) sin(30));
centre (0 0.866025404 .5);
spherical yes;
HessianVolumeRatio 0;
boostLaplacian 1;

//monitorFunctionFrom monitorFunctionMapped;

// ************************************************************************* //


