// The FOAM Project // File: earthProperties
/*
-------------------------------------------------------------------------------
 =========         | dictionary
 \\      /         |
  \\    /          | Name:   earthProperties
   \\  /           | Family: FoamX configuration file
    \\/            |
    F ield         | FOAM version: 2.2
    O peration     | Product of Nabla Ltd.
    A and          |
    M anipulation  | Email: Enquiries@Nabla.co.uk
-------------------------------------------------------------------------------
*/
// FoamX Case Dictionary.

FoamFile
{
    version         2.0;
    format          ascii;

    root            "/home/dm2/hilary/foam/hilary2.3/run/cosineBell";
    case            "WilliamsonAlpha0";
    instance        "constant";
    local           "";

    class           dictionary;
    object          earthProperties;
}

// * * * * * * * * * * * * * * * * * * * * * * * * * * * * * * * * * * * * * //

patchName "originalPatch";
meshStretch 1;
lonCentre 90;
latCentre 30;
mountainRadius 20;

// ************************************************************************* //
