FoamFile
{
    version         1.4;
    format          ascii;

    root            "/export/lime/data-04/sws02hs/OpenFOAM/sws02hs-1.4.1/run/shallowWater";
    case            "bucky4_30";
    instance        "constant";
    local           "";

    class           dictionary;
    object          gmtDict;
}

// How to plot
projection "Q0/18c";
projection "G-22/45/18c";
projection2D latLon;
//patch originalPatch;

FieldsToPlot
2
(
//      [Cdiff vectors 1e-6 1 "black"]
    [cellCentres vectorEndPoints  1 1    "red"]
//    [cellCentresI vectorEndPoints  1 1    "blue"]
//    [cellCentresOld vectorEndPoints  1 1    "blue"]
//    [faceCentres vectorEndPoints  1 1    "red"]
//    [faceCentresOld vectorEndPoints  1 1    "blue"]
    [none mesh "grey"]
);

// options
region "-180/180/-90/90";
//boundaryMarks "g0/g89";
//separateLegend true;
//overlay true;
