FoamFile
{
    version         1.4;
    format          ascii;

    root            "/export/lime/data-04/sws02hs/OpenFOAM/sws02hs-1.4.1/run/shallowWater";
    case            "bucky4_30";
    instance        "constant";
    local           "";

    class           dictionary;
    object          gmtDict;
}

// How to plot
projection "Q180/9c";
//projection "G90/30/9c";
//projection "G135/30/12c";
projection2D latLon;
//patch originalPatch;

FieldsToPlot
1
(
    [hDiff rawValues -100 100 1 "$GMTU/colours/red_white_blue.cpt"]
);

// options
region "0/360/-90/90";
//boundaryMarks "g0/g89";
annotate "minMax 0 -92";
separateLegend true;

