FoamFile
{
    version         1.4;
    format          ascii;

    root            "/export/lime/data-04/sws02hs/OpenFOAM/sws02hs-1.4.1/run/shallowWater";
    case            "bucky4_30";
    instance        "constant";
    local           "";

    class           dictionary;
    object          gmtDict;
}

// How to plot
projection "Q0/18c";
//projection "G135/30/12c";
projection2D latLon;
//patch originalPatch;

FieldsToPlot
2
(
    [hDiff rawValues -40 40 4 "$GMTU/colours/red_white_blue.cpt"]
    [none mesh "grey"]
);

// options
region "-180/180/-90/90";
//rMin 6393000;
//rMax 6394000;
boundaryMarks "g0/g90";
annotate "minMax 0 -0.01";
separateLegend true;
//overlay true;
