FoamFile
{
    version         1.4;
    format          ascii;

    root            "/export/lime/data-04/sws02hs/OpenFOAM/sws02hs-1.4.1/run/shallowWater";
    case            "bucky4_30";
    instance        "constant";
    local           "";

    class           dictionary;
    object          gmtDict;
}

// How to plot
//projection "Q0/36c";
projection "G-22/45/18c";
projection2D latLon;
//patch originalPatch;

FieldsToPlot
1
(
    [hDiff rawValues -10 10 1 "$GMTU/colours/red_white_blue.cpt"]
);

// options
region "-180/180/-90/90";
//boundaryMarks "g0/g89";
boundaryMarks "g0/g178-89";
//separateLegend true;
lastPlot false;

