FoamFile
{
    version         1.4;
    format          ascii;

    root            "/export/lime/data-04/sws02hs/OpenFOAM/sws02hs-1.4.1/run/shallowWater";
    case            "bucky4_30";
    instance        "constant";
    local           "";

    class           dictionary;
    object          gmtDict;
}

// How to plot
projection "Q180/18c";
//projection "G90/30/18c";
projection2D latLon;
//patch originalPatch;

FieldsToPlot
2
(
    [h rawValues 1e3 3e3 2e2 "$GMTU/colours/red_white_blue.cpt"]
    [Uf vectors   0.1 1 "black"]
);

// options
region "0/360/-90/90";
//rMin 6393000;
//rMax 6394000;
boundaryMarks "g0/g9890";
annotate "minMax 0 -92";
//separateLegend true;
//overlay true;
