FoamFile
{
    version         1.4;
    format          ascii;

    root            "/export/lime/data-04/sws02hs/OpenFOAM/sws02hs-1.4.1/run/shallowWater";
    case            "bucky4_30";
    instance        "constant";
    local           "";

    class           dictionary;
    object          gmtDict;
}

// How to plot
//projection "Q0/18c";
//projection "G-45/0/18c";
projection "G0/30/9c";
projection2D latLon;
patch originalPatch;

FieldsToPlot
1
(
    [none mesh      "black"]
);

// options
region "-180/180/-90/90";
boundaryMarks "g0/g89";
//separateLegend true;
//overlay true;
