FoamFile
{
    version         1.4;
    format          ascii;

    root            "/export/lime/data-04/sws02hs/OpenFOAM/sws02hs-1.4.1/run/shallowWater";
    case            "bucky4_30";
    instance        "constant";
    local           "";

    class           dictionary;
    object          gmtDict;
}

// How to plot
//projection "Q0/36c";
//projection "G135/30/36c";
projection "G90/0/9c";
projection2D latLon;
//patch originalPatch;

FieldsToPlot
1
(
    [skewness rawValues 0 0.2 0.01 "$GMTU/colours/red.cpt"]
);

// options
region "-180/180/-90/90";
separateLegend true;
//boundaryMarks "g0/g90";
overlay true;
lastPlot true;
