FoamFile
{
    version         1.4;
    format          ascii;

    root            "/export/lime/data-04/sws02hs/OpenFOAM/sws02hs-1.4.1/run/shallowWater";
    case            "bucky4_30";
    instance        "constant";
    local           "";

    class           dictionary;
    object          gmtDict;
}

// How to plot
projection "Q0/18c";
//projection "G90/30/18c";
projection2D latLon;
//patch originalPatch;

FieldsToPlot
2
(
    [none mesh "grey"]
//    [vS rawValues -1e8 1e8 1e7 "$GMTU/colours/red_white_blue.cpt"]
//    [uS1 rawValues -1e8 1e8 1e7 "$GMTU/colours/red_white_blue.cpt"]
    [uS2 rawValues -1e8 1e8 1e7 "$GMTU/colours/red_white_blue.cpt"]
);

// options
region "-180/180/-90/90";
boundaryMarks "g0/g90";
annotate "minMax 0 -0.01";

