FoamFile
{
    version         1.4;
    format          ascii;

    root            "/export/lime/data-04/sws02hs/OpenFOAM/sws02hs-1.4.1/run/shallowWater";
    case            "bucky4_30";
    instance        "constant";
    local           "";

    class           dictionary;
    object          gmtDict;
}

// How to plot
projection "Q0/18c";
//projection "G90/30/18c";
projection2D latLon;
//patch originalPatch;

FieldsToPlot
4
(
    [none mesh "grey"]
    [Uf vectors   50 1 "black"]
    [Urecon vectors 50 1 "blue"]
    [Uerror vectors 50 1 "red"]
);

// options
region "-180/180/-90/90";
boundaryMarks "g0/g90";
annotate "minMax 0 -0.01";
//separateLegend true;
//overlay true;
