FoamFile
{
    version         1.4;
    format          ascii;

    root            "/export/lime/data-04/sws02hs/OpenFOAM/sws02hs-1.4.1/run/shallowWater";
    case            "bucky4_30";
    instance        "constant";
    local           "";

    class           dictionary;
    object          gmtDict;
}

// How to plot
projection "Q180/18c";
//projection "G45/30/18c";
projection2D latLon;
//patch originalPatch;

FieldsToPlot
1
(
    [none mesh "black"]
)

// options
region "180/360/-90/0";
boundaryMarks "30/30";
//annotate "day_15-20 0 -92";
//separateLegend true;
overlay true;
lastPlot true;
