FoamFile
{
    version         1.4;
    format          ascii;

    root            "";
    case            "";
    instance        "constant";
    local           "";

    class           dictionary;
    object          gmtDict;
}

// How to plot
// Compulsory inputs
projection "X18c/9c";
projection2D XZ;

FieldsToPlot
2
(
//    [thetaDiff filledContours -2.1 2.1 0.2 "$GMTU/colours/red_white_blue.cpt"]
//    [UDiff vectors 2e3 7 "black"]
    [thetaDiff filledContours 0 0 0 "$GMTU/colours/red_white_blue.cpt"]
    [UDiff vectors 2e3 7 "black"]
);
annotate "minMax -7e3 -100";

//region "-7000/7000/0/7000";
//boundaryMarks "5e3/5e3";
