FoamFile
{
    version         2.2;
    format          ascii;

    root            "";
    case            "";
    instance        "constant";
    local           "";

    class           dictionary;
    object          gmtDict;
}

// How to plot
// Compulsory inputs
projection "X18c/6c";
projection2D XZ;
boundaryPatch ground;

FieldsToPlot
3
(
    [Uf vectorContours 5e-4 1 5e-4 "black" 2]
    [Uf vectorContours -1 -5e-4 5e-4 "black,10_10:0" 2]
    [Uf vectorContours 0 100 100 "black,2_2:0" 2]
);

region "-40e3/40e3/0/12e3";
boundaryMarks "10e3/2e3";
