/*---------------------------------------------------------------------------*\
| =========                 |                                                 |
| \\      /  F ield         | OpenFOAM: The Open Source CFD Toolbox           |
|  \\    /   O peration     | Version:  1.4                                   |
|   \\  /    A nd           | Web:      http://www.openfoam.org               |
|    \\/     M anipulation  |                                                 |
\*---------------------------------------------------------------------------*/

FoamFile
{
    version         2.2;
    format          ascii;

    root            "";
    case            "";
    instance        "";
    local           "";

    class           dictionary;
    object          blockMeshDict;
}

// * * * * * * * * * * * * * * * * * * * * * * * * * * * * * * * * * * * * * //

convertToMeters 1000;

vertices
(
    (-10 1  0)
    ( 20 1  0)
    ( 20 1 20)
    (-10 1 20)
    (-10 0  0)
    ( 20 0  0)
    ( 20 0 20)
    (-10 0 20)
);

blocks
(
    hex (0 1 2 3 4 5 6 7) (240 160 1) simpleGrading (1 1 1)
);

edges
(
);

boundary
(
    ground
    {
        type wall;
        faces ((1 5 4 0));
    }
    top
    {
        type   wall;
        faces  ((3 7 6 2));
    }
    left
    {
        type    inlet;
        faces    ((0 4 7 3));
    }
	right
    {
        type    outlet;
        faces    ((2 6 5 1));
    )
	// empty frontAndBack
    // (
    //     (0 3 2 1)
    //     (4 5 6 7)
    // )
);

mergePatchPairs
(
);

// ************************************************************************* //
