// The FOAM Project // File: controlDict
/*
-------------------------------------------------------------------------------
 =========         | dictionary
 \\      /         |
  \\    /          | Name:   controlDict
   \\  /           | Family: FoamX configuration file
    \\/            |
    F ield         | FOAM version: 2.3
    O peration     | Product of Nabla Ltd.
    A and          |
    M anipulation  | Email: Enquiries@Nabla.co.uk
-------------------------------------------------------------------------------
*/
// FoamX Case Dictionary.

FoamFile
{
    version         2.0;
    format          ascii;

    root            "/home/dm2/hilary/foam/hilary2.3/run/cosineBell";
    case            "WilliamsonAlpha0";
    instance        "system";
    local           "";

    class           dictionary;
    object          controlDict;
}

// * * * * * * * * * * * * * * * * * * * * * * * * * * * * * * * * * * * * * //

applicationClass scalarTransportFoam;

startFrom       startTime;

startTime      0;

stopAt          endTime;

endTime         993601;

deltaT          300;

writeControl    runTime;

writeInterval   43200;

cycleWrite      0;

writeFormat     ascii; //

writePrecision  6;

writeCompression uncompressed;

timeFormat      general;

timePrecision   8;

runTimeModifiable no;


// ************************************************************************* //
