// The FOAM Project // File: fvSchemes
/*
-------------------------------------------------------------------------------
 =========         | dictionary
 \\      /         |
  \\    /          | Name:   fvSchemes
   \\  /           | Family: FoamX configuration file
    \\/            |
    F ield         | FOAM version: 2.3
    O peration     | Product of Nabla Ltd.
    A and          |
    M anipulation  | Email: Enquiries@Nabla.co.uk
-------------------------------------------------------------------------------
*/
// FoamX Case Dictionary.

FoamFile
{
    version         2.0;
    format          ascii;

    root            "";
    case            "";
    instance        "system";
    local           "";

    class           dictionary;
    object          CVSphereReMeshDict;
}

// * * * * * * * * * * * * * * * * * * * * * * * * * * * * * * * * * * * * * //

// // Field to set resolution by
resolutionFields
1
(
    (ppt (2 40))
);
minDx    1e5;
maxDx    8e5;

// Number of iterations with varying springs
nIterations0     5;

// Number of refinement iterations without varying springs
nIterations1     0;

smoothAll false;

relaxationFactorStart 1;
relaxationFactorEnd   0.5;
