// The FOAM Project // File: fvSolution
/*
-------------------------------------------------------------------------------
 =========         | dictionary
 \\      /         |
  \\    /          | Name:   fvSolution
   \\  /           | Family: FoamX configuration file
    \\/            |
    F ield         | FOAM version: 2.3
    O peration     | Product of Nabla Ltd.
    A and          |
    M anipulation  | Email: Enquiries@Nabla.co.uk
-------------------------------------------------------------------------------
*/
// FoamX Case Dictionary.

FoamFile
{
    version         2.0;
    format          ascii;

    root            "/home/dm2/hilary/foam/hilary2.3/run/cosineBell";
    case            "WilliamsonAlpha0";
    instance        "system";
    local           "";

    class           dictionary;
    object          fvSolution;
}

// * * * * * * * * * * * * * * * * * * * * * * * * * * * * * * * * * * * * * //

solvers
{
    h               ICCG 1e-10 0.001;
    hFinal          ICCG 1e-10 0;
    hU              BICCG 1e-10 0.001;
    hUFinal         BICCG 1e-10 0;
}

PISO
{
    nOuterCorrectors 2;
    nCorrectors      1;
    nNonOrthogonalCorrectors 0;

    momentumPredictor yes;
}

// ************************************************************************* //
