// The FOAM Project // File: blockMeshDict
/*
-------------------------------------------------------------------------------
 =========         | dictionary
 \\      /         | 
  \\    /          | Name:   blockMeshDict
   \\  /           | Family: FoamX configuration file
    \\/            | 
    F ield         | FOAM version: 2.3
    O peration     | Product of Nabla Ltd.
    A and          | 
    M anipulation  | Email: Enquiries@Nabla.co.uk
-------------------------------------------------------------------------------
*/
// FoamX Case Dictionary.

FoamFile
{
    version         2.0;
    format          ascii;

    root            "/home/warhol/chris/foam/chris2.3/run/tutorials/icoFoam";
    case            "cavity";
    instance        "constant/polyMesh";
    local           "";

    class           dictionary;
    object          blockMeshDict;
}

// * * * * * * * * * * * * * * * * * * * * * * * * * * * * * * * * * * * * * //


convertToMeters 1;

vertices        
(
    (0 0 -4)
    (4 0 -4)
    (8 4 -4)
    (4 2.1 -4)
    (0 0  8)
    (4 0  8)
    (8 4  8)
    (4 2.1  8)
);

blocks          
(
    hex (0 1 2 3 4 5 6 7) (4 4 1) simpleGrading (1 1 1)
);

edges           
(
);

patches         
(
    wall allBoundary
    (
        (3 7 6 2)
        (0 4 7 3)
        (2 6 5 1)
        (1 5 4 0)
        (0 3 2 1)
        (4 5 6 7)
    )
);

mergePatchPairs 
(
);


// ************************************************************************* //
