FoamFile
{
    version         1.4;
    format          ascii;

    root            "";
    case            "";
    instance        "constant";
    local           "";

    class           dictionary;
    object          gmtDict;
}

// How to plot
// Compulsory inputs
projection "X18c/18c";
projection2D XZ;
//patch front;

FieldsToPlot
2
(
    [thetaDiff rawValues -1 1 0.1 "$GMTU/colours/red_white_blue.cpt"]
//    [thetaDiff rawValues -1e-2 1e-2 1e-3 "$GMTU/colours/red_white_blue.cpt"]
    [Uf         vectors  2000 1 "black"]
);

annotate "minMax 0.01 -0.005";
//region "0/3e3/0/3e3";

