FoamFile
{
    version         1.4;
    format          ascii;

    root            "";
    case            "";
    instance        "constant";
    local           "";

    class           dictionary;
    object          gmtDict;
}

// How to plot
// Compulsory inputs
projection "X18c/18c";
projection2D XZ;
//patch front;

FieldsToPlot
2
(
    [Exner rawValues 0 0 0 "jet"]
    [Exner contours 0 1 0.025 "black"]
);

annotate "minMax 0.01 -0.005";
