FoamFile
{
    version         2.2;
    format          ascii;

    root            "";
    case            "";
    instance        "constant";
    local           "";

    class           dictionary;
    object          gmtDict;
}

// How to plot
// Compulsory inputs
projection "X18c/18c";
projection2D XZ;

FieldsToPlot
3
(
    [monitor rawValues 0 5 0.5 "$GMTU/colours/red_white_blue.cpt"]
    [monitorR rawValues 0 5 0.5 "$GMTU/colours/red_white_blue.cpt"]
    [none mesh "black"]
);
