FoamFile
{
    version         1.4;
    format          ascii;

    root            "";
    case            "";
    instance        "constant";
    local           "";

    class           dictionary;
    object          gmtDict;
}

// How to plot
// Compulsory inputs
projection "X18c/9c";
projection2D XZ;
//patch front;

FieldsToPlot
1
(
//    [rho   rawValues 0.4 1.1 0.1 "$GMTU/colours/white_blue_red.cpt"]
    [rho   rawValues 0 0 0 "$GMTU/colours/white_blue_red.cpt"]
);

//region "-7500/-2500/0/2500";
annotate "minMax 0.01 -0.005";
