// The FOAM Project // File: fvSchemes
/*
-------------------------------------------------------------------------------
 =========         | dictionary
 \\      /         |
  \\    /          | Name:   fvSchemes
   \\  /           | Family: FoamX configuration file
    \\/            |
    F ield         | FOAM version: 2.3
    O peration     | Product of Nabla Ltd.
    A and          |
    M anipulation  | Email: Enquiries@Nabla.co.uk
-------------------------------------------------------------------------------
*/
// FoamX Case Dictionary.

FoamFile
{
    version         2.0;
    format          ascii;

    root            "/home/dm2/hilary/foam/hilary2.3/run/cosineBell";
    case            "bucky5WilliamsonAlpha35";
    instance        "system";
    local           "";

    class           dictionary;
    object          fvSchemes;
}

// * * * * * * * * * * * * * * * * * * * * * * * * * * * * * * * * * * * * * //

ddtSchemes
{
	default      CrankNicholson 0.9;
}

gradSchemes
{
    default         Gauss quadraticFit 1000;
}

divSchemes
{
    default         none;
    div(phiv,hU)    Gauss cubicUpwind 1000;
    div(U)          Gauss quadraticFit 1000;
}

laplacianSchemes
{
    default         Gauss quadraticFit 1000 quadraticFit 1000;
}

interpolationSchemes
{
    default         quadraticFit 1000;
}

snGradSchemes
{
    default         quadraticFit 1000;
}

fluxRequired
{
    h;
}

ddtPhiCorrCoeff "fixed 0";


// ************************************************************************* //
