FoamFile
{
    version         1.4;
    format          ascii;

    root            "";
    case            "";
    instance        "constant";
    local           "";

    class           dictionary;
    object          gmtDict;
}

// How to plot
// Compulsory inputs
projection "X18c/18c";
projection2D XZ;
patch front;

FieldsToPlot
2
(
    [none mesh "grey"]
    [none numbered 6]
);

region "-0/10e3/0/2e3";
boundaryMarks "5000/1000";

