FoamFile
{
    version         1.4;
    format          ascii;

    root            "..";
    case            "testCase2";
    instance        "constant";
    local           "";

    class           dictionary;
    object          gmtDict;
}

// How to plot
// Compulsory inputs
projection "G180/60/18c";
//projection "H180/18c";
//projection "Q180/18c";
projection2D latLon; // XY; // XZ; // YZ;
patch originalPatch;

FieldsToPlot
1
(
    [mesh   mesh      "faint"] // number are red green blue from 0-255
);

// Options
region "0/360/-90/90";

