FoamFile
{
    version         1.4;
    format          ascii;

    root            "..";
    case            "testCase2";
    instance        "constant";
    local           "";

    class           dictionary;
    object          gmtDict;
}

// How to plot
// Compulsory inputs
//projection "G180/60/18c";
projection "Q180/18c";
projection2D latLon; // XY; // XZ; // YZ;
patch originalPatch;

FieldsToPlot
1
(
    [ppt   rawValues 0 100 10 "$GMTU/colours/white_blue_red.cpt"]
);

// Options
region "0/360/-90/90";

