// The FOAM Project // File: fvSchemes
/*
-------------------------------------------------------------------------------
 =========         | dictionary
 \\      /         |
  \\    /          | Name:   fvSchemes
   \\  /           | Family: FoamX configuration file
    \\/            |
    F ield         | FOAM version: 2.3
    O peration     | Product of Nabla Ltd.
    A and          |
    M anipulation  | Email: Enquiries@Nabla.co.uk
-------------------------------------------------------------------------------
*/
// FoamX Case Dictionary.

FoamFile
{
    version         2.0;
    format          ascii;

    root            "";
    case            "";
    instance        "system";
    local           "";

    class           dictionary;
    object          VoronoiSphereMesh;
}

// * * * * * * * * * * * * * * * * * * * * * * * * * * * * * * * * * * * * * //

//initialPointsFrom InitialPointsFromCellCentres;
initialPointsFrom InitialPointsFromFile;

initialCellCentresFile "5/16/meshPoints";

//sourceCase ".";
//sourcePatch "originalPatch";

radiusOfSphere 6372220;
relaxationFactorStart 1;
relaxationFactorEnd 1;
addRemovePoints false;
fixBadShapes false;
nLloydIterations 0;
nLaplacianSmooths 0;
nHRIterations 0;
maxPittewayIterations 50;
nTomitaSprings 0;
TomitaSpringsBeta 1.2;
smoothAll false;
spatialSort true;
hilbertSort true;


// centre for meshAnalysis
//centre (cos(30)*sin(90) cos(30)*cos(90) sin(30));
centre (0 0.866025404 .5);
alpha 0.157079633;
beta 0.523598776;
gamma 1.52588e-05;

// ************************************************************************* //


