/*---------------------------------------------------------------------------*\
| =========                 |                                                 |
| \\      /  F ield         | OpenFOAM: The Open Source CFD Toolbox           |
|  \\    /   O peration     | Version:  1.4                                   |
|   \\  /    A nd           | Web:      http://www.openfoam.org               |
|    \\/     M anipulation  |                                                 |
\*---------------------------------------------------------------------------*/

FoamFile
{
    version         2.0;
    format          ascii;

    root            "";
    case            "";
    instance        "";
    local           "";

    class           dictionary;
    object          blockMeshDict;
}

// * * * * * * * * * * * * * * * * * * * * * * * * * * * * * * * * * * * * * //

convertToMeters 1000;

vertices
(
    (-120 1  0)
    (-40  1  0)
    ( 40  1  0)
    ( 120 1  0)
    (-120 1  20)
    (-40  1  20)
    ( 40  1  20)
    ( 120 1  20)
    (-120 1  50)
    (-40  1  50)
    ( 40  1  50)
    ( 120 1  50)
    (-120 0  0)
    (-40  0  0)
    ( 40  0  0)
    ( 120 0  0)
    (-120 0  20)
    (-40  0  20)
    ( 40  0  20)
    ( 120 0  20)
    (-120 0  50)
    (-40  0  50)
    ( 40  0  50)
    ( 120 0  50)  
);

blocks
(
	hex (0 1 5 4 12 13 17 16)   (5 10 1) simpleGrading (1 1 1)
	hex (1 2 6 5 13 14 18 17)   (5 10 1) simpleGrading (1 1 1)
	hex (2 3 7 6 14 15 19 18)   (5 10 1) simpleGrading (1 1 1)
	hex (4 5 9 8 16 17 21 20)   (5 15 1) simpleGrading   (1 1 1)
	hex (5 6 10 9 17 18 22 21)  (5 15 1) simpleGrading   (1 1 1)
	hex (6 7 11 10 18 19 23 22) (5 15 1) simpleGrading   (1 1 1)
);

edges();

boundary
(
    ground
    {
        type wall;
        faces
        (
            (0 1 13 12)
            (1 2 14 13)
            (2 3 15 14)
        );
    }
    top
    {
        type wall;
        faces
        (
            (8 20 21 9)
            (9 21 22 10)
            (10 22 23 11)
        );
    }
    inlet
    {
        type inlet;
        faces
        (
            (0 12 16 4)
            (4 16 20 8)
        );
    }
    outlet
    {
        type outlet;
        faces
        (
            (3 7 19 15)
            (7 11 23 19)
        );
    }
    front
    {
        type empty;
        faces
        (
            (0 4 5 1)
            (1 5 6 2)
            (2 6 7 3)
            (4 8 9 5)
            (5 9 10 6)
            (6 10 11 7)
        );
    }
    back
    {
        type empty;
        faces
        (
            (12 13 17 16)
            (13 14 18 17)
            (14 15 19 18)
            (16 17 21 20)
            (17 18 22 21)
            (18 19 23 22)
        );
    }
);

mergePatchPairs
(
);

// ************************************************************************* //
