// The FOAM Project // File: fvSchemes
/*
-------------------------------------------------------------------------------
 =========         | dictionary
 \\      /         |
  \\    /          | Name:   fvSchemes
   \\  /           | Family: FoamX configuration file
    \\/            |
    F ield         | FOAM version: 2.3
    O peration     | Product of Nabla Ltd.
    A and          |
    M anipulation  | Email: Enquiries@Nabla.co.uk
-------------------------------------------------------------------------------
*/
// FoamX Case Dictionary.

FoamFile
{
    version         2.0;
    format          ascii;

    root            "";
    case            "";
    instance        "system";
    local           "";

    class           dictionary;
    object          VoronoiSphereMesh;
}

// * * * * * * * * * * * * * * * * * * * * * * * * * * * * * * * * * * * * * //

initialPointsFrom InitialPointsFromFile;
uniformResolution 1;


initialCellCentresFile "/home/hilary/f77/buckyball_griddata/gridN.out/cellCentres_noHeader";

radiusOfSphere 1;
relaxationFactorStart 1;
relaxationFactorEnd 1;
addRemovePoints false;
fixBadShapes false;
nLloydIterations 0;
nLaplacianSmooths 0;
nHRIterations 0;
maxPittewayIterations 0;
nTomitaSprings 0;
TomitaSpringsBeta 1.2;
smoothAll false;
spatialSort true;

// ************************************************************************* //


