FoamFile
{
    version         1.4;
    format          ascii;

    root            "";
    case            "";
    instance        "constant";
    local           "";

    class           dictionary;
    object          gmtDict;
}

// How to plot
// Compulsory inputs
projection "X18c/8c";
projection2D XZ;
//patch frontAndBack;

FieldsToPlot
2
(
    [Tdiff rawValues -0.2 0.2 0.02 "$GMTU/colours/red_white_blue.cpt"]
    [T contours 0.025 0.975 0.05 "black"]
);

region "-20e3/80e3/0/14000";
annotate "minMax 0.01 -0.01";

