FoamFile
{
    version         1.4;
    format          ascii;

    root            "";
    case            "";
    instance        "constant";
    local           "";

    class           dictionary;
    object          gmtDict;
}

// How to plot
// Compulsory inputs
projection "X18c/8c";
projection2D XZ;
//patch frontAndBack;

FieldsToPlot
1
(
    [Tf rawValues 0 0 0 "$GMTU/colours/red_blue_white.cpt"]
//    [T contours 0.025 0.975 0.05 "black"]
);

//region "-20e3/80e3/0/14000";
annotate "minMax 0.01 -0.01";

