FoamFile
{
    version         1.4;
    format          ascii;

    root            "";
    case            "";
    instance        "constant";
    local           "";

    class           dictionary;
    object          gmtDict;
}

// How to plot
// Compulsory inputs
projection "X18c/9c";
projection2D XZ;
//patch frontAndBack;

FieldsToPlot
2
(
    [divu rawValues 0 0 0 "$GMTU/colours/red_white_blue.cpt"]
    [Uf vectors 50 1 "black"]
);

region "-25e3/5e3/0/15e3";
annotate "minMax 0.01 -0.01";

