FoamFile
{
    version         1.4;
    format          ascii;

    root            "/export/lime/data-04/sws02hs/OpenFOAM/sws02hs-1.4.1/run/shallowWater";
    case            "bucky4_30";
    instance        "constant";
    local           "";

    class           dictionary;
    object          gmtDict;
}

// How to plot
projection "Q180/18c";
//projection "G-90/-30/18c";
//projection "G-120/-45/18c";
projection2D latLon;

FieldsToPlot
1
(
//    [detHess rawValues 6 9 0.25 "$GMTU/colours/red_white_blue.cpt"]
    [detHess rawValues 0 1 0.05 "$GMTU/colours/red_white_blue.cpt"]
//    [none mesh "black"]
//    [gradPhif vectors 1e-6 1 "black"]
);

// options
region "0/360/-90/90";
boundaryMarks "g0/g89";
annotate "minMax 0 -93";
//separateLegend true;
//overlay true;
//lastPlot false;
annotate "minMax -180 -92";

