FoamFile
{
    version         1.4;
    format          ascii;

    root            "/export/lime/data-04/sws02hs/OpenFOAM/sws02hs-1.4.1/run/shallowWater";
    case            "bucky4_30";
    instance        "constant";
    local           "";

    class           dictionary;
    object          gmtDict;
}

// How to plot
//projection "Q180/18c";
//projection "G-120/-45/18c";
projection "G-90/-30/18c";
projection2D latLon;

FieldsToPlot
3
(
    [Phi rawValues -4.5e13 -3.5e13 .05e13 "$GMTU/colours/red_white_blue.cpt"]
//    [Phi rawValues 0 0 0 "$GMTU/colours/red_white_blue.cpt"]
    [none mesh "black"]
    [gradPhif vectors 1e-6 1 "black"]
);

// options
region "0/360/-90/90";
boundaryMarks "g0/g89";
annotate "minMax 0 -93";
//separateLegend true;
//overlay true;
//lastPlot false;
