FoamFile
{
    version         2.3;
    format          ascii;

    root            "";
    case            "";
    instance        "constant";
    local           "";

    class           dictionary;
    object          gmtDict;
}

// How to plot
// Compulsory inputs
projection "X18c/18c";
projection2D XZ;

FieldsToPlot
2
(
    [theta filledContours 0 0 0 "$GMTU/colours/white_blue_red.cpt"]
    [none mesh "black"]
);

//separateLegend true;
//region "-6000/6000/2000/10000";
annotate "minMax 0.01 -0.005";

