FoamFile
{
    version         2.3;
    format          ascii;

    root            "";
    case            "";
    instance        "constant";
    local           "";

    class           dictionary;
    object          gmtDict;
}

// How to plot
// Compulsory inputs
projection "X18c/14c";
projection2D XZ;

FieldsToPlot
1
(
    [theta filledContours 297.95 302.05 0.1 "$GMTU/colours/red_white_blue.cpt"]
);

separateLegend true;
region "5e3/15e3/5e3/12e3";
annotate "minMax 6e3 4.8e3";
boundaryMarks "5000/5000";

