FoamFile
{
    version         2.3;
    format          ascii;

    root            "";
    case            "";
    instance        "constant";
    local           "";

    class           dictionary;
    object          gmtDict;
}

// How to plot
// Compulsory inputs
projection "X18c/9c";
projection2D XZ;

FieldsToPlot
2
(
    [theta filledContours 297.975 302.025 0.05 "$GMTU/colours/red_white_blue.cpt"]
    [Uf vectors 50 45 "black"]
);

separateLegend true;
region "-15e3/15e3/0/15e3";
annotate "minMax -15e3 -1.5e3";
boundaryMarks "5e3/5e3";

