FoamFile
{
    version         2.3;
    format          ascii;

    root            "";
    case            "";
    instance        "constant";
    local           "";

    class           dictionary;
    object          gmtDict;
}

// How to plot
// Compulsory inputs
projection "X18c/18c";
projection2D XY;

FieldsToPlot
(
    [T filledContours 0 1 0.05 "$GMTU/colours/white_blue_red.cpt"]
    [U vectors 0.05 3 "black"]
);

//separateLegend true;
//region "-2500/-1500/0/1000";
annotate "minMax 0.01 -0.005";

